1AD2_MRD_A_700
     RDKit          3D

  8  7  0  0  0  0  0  0  0  0999 V2000
   20.7787   -0.3902   27.8048 C   0  0  0  0  0  0  0  0  0  0  0  0
   19.7717   -0.2676   26.6756 C   0  0  0  0  0  0  0  0  0  0  0  0
   19.6877   -1.4998   26.0296 O   0  0  0  0  0  0  0  0  0  0  0  0
   20.2636    0.7598   25.6734 C   0  0  0  0  0  0  0  0  0  0  0  0
   18.3696    0.1010   27.1905 C   0  0  0  0  0  0  0  0  0  0  0  0
   18.2447    1.3348   28.0983 C   0  0  0  0  0  0  0  0  0  0  0  0
   18.9295    2.4365   27.5849 O   0  0  0  0  0  0  0  0  0  0  0  0
   18.6915    1.0465   29.5188 C   0  0  0  0  0  0  0  0  0  0  0  0
  1  2  1  0
  2  3  1  0
  2  4  1  0
  2  5  1  0
  5  6  1  0
  6  7  1  0
  6  8  1  0
A    1
C1
A    2
C2
A    3
O2
A    4
CM
A    5
C3
A    6
C4
A    7
O4
A    8
C5
M  END

